@<TRIPOS>MOLECULE
1a30 ligand
48 47 1 0 0 
SMALL
USER_CHARGES


@<TRIPOS>ATOM
  1 N        4.8410    27.5760     5.3100 N.3   1 MOL  -0.8530 
  2 H1       3.8947    27.3126     5.0836 H     1 MOL   0.4500 
  3 H2       5.1455    28.3055     4.6845 H     1 MOL   0.4500 
  4 CA       5.7330    26.3940     5.1650 C.3   1 MOL   0.4840 
  5 C        7.1740    26.7720     5.5040 C.2   1 MOL   0.5690 
  6 O        7.6240    27.8870     5.2180 O.2   1 MOL  -0.5700 
  7 CB       5.6380    25.8180     3.7500 C.3   1 MOL  -0.1600 
  8 CG       5.8270    26.8460     2.6520 C.3   1 MOL  -0.2660 
  9 CD       5.6250    26.2750     1.2620 C.2   1 MOL   0.9060 
 10 OE1      4.6630    25.4970     1.0650 O.co2 1 MOL  -0.9000 
 11 OE2      6.4250    26.6200     0.3630 O.co2 1 MOL  -0.9000 
 12 N1       7.8730    25.8560     6.1630 N.am  1 MOL  -0.7301 
 13 C1       9.2580    26.0720     6.5600 C.3   1 MOL   0.2811 
 14 C3      10.1010    24.9180     6.0470 C.2   1 MOL   0.5690 
 15 O1      10.1820    23.8640     6.6820 O.2   1 MOL  -0.5700 
 16 C5       9.3460    26.1960     8.0790 C.3   1 MOL  -0.2660 
 17 C7       8.6490    27.4410     8.5880 C.2   1 MOL   0.9060 
 18 OD1      9.2700    28.5180     8.5210 O.co2 1 MOL  -0.9000 
 19 OD2      7.4740    27.3570     9.0120 O.co2 1 MOL  -0.9000 
 20 N2      10.6860    25.1150     4.8690 N.am  1 MOL  -0.7301 
 21 C2      11.4980    24.0930     4.2260 C.3   1 MOL   0.1141 
 22 C4      12.9840    24.3990     4.2680 C.2   1 MOL   0.9060 
 23 O2      13.7840    23.4420     4.1920 O.co2 1 MOL  -0.9000 
 24 C6      11.0380    23.9220     2.7850 C.3   1 MOL  -0.1600 
 25 C8       9.5830    23.4660     2.7700 C.3   1 MOL  -0.0800 
 26 CD1      8.8190    24.1970     1.7080 C.3   1 MOL  -0.2400 
 27 CD2      9.5210    21.9550     2.6020 C.3   1 MOL  -0.2400 
 28 OXT     13.3340    25.5920     4.3780 O.co2 1 MOL  -0.9000 
 29 H4       5.4024    25.6212     5.8745 H     1 MOL   0.0800 
 30 H5       4.6449    25.3608     3.6285 H     1 MOL   0.0800 
 31 H6       6.4134    25.0458     3.6380 H     1 MOL   0.0800 
 32 H7       6.8488    27.2476     2.7204 H     1 MOL   0.0800 
 33 H8       5.1023    27.6592     2.8052 H     1 MOL   0.0800 
 34 H9       7.4339    24.9880     6.3949 H     1 MOL   0.3700 
 35 H10      9.6222    27.0066     6.1085 H     1 MOL   0.0800 
 36 H11     10.4057    26.2377     8.3712 H     1 MOL   0.0800 
 37 H12      8.8743    25.3133     8.5353 H     1 MOL   0.0800 
 38 H13     10.5637    25.9949     4.4098 H     1 MOL   0.3700 
 39 H14     11.3353    23.1452     4.7600 H     1 MOL   0.0800 
 40 H15     11.6644    23.1676     2.2866 H     1 MOL   0.0800 
 41 H16     11.1276    24.8815     2.2546 H     1 MOL   0.0800 
 42 H17      9.1313    23.7168     3.7411 H     1 MOL   0.0800 
 43 H18      7.7727    23.8576     1.7097 H     1 MOL   0.0800 
 44 H19      9.2693    23.9921     0.7255 H     1 MOL   0.0800 
 45 H20      8.8541    25.2779     1.9092 H     1 MOL   0.0800 
 46 H21     10.0967    21.4728     3.4058 H     1 MOL   0.0800 
 47 H22      9.9482    21.6766     1.6273 H     1 MOL   0.0800 
 48 H23      8.4734    21.6232     2.6515 H     1 MOL   0.0800 
@<TRIPOS>BOND
  1   1   2  1   
  2   1   3  1   
  3   1   4  1   
  4   4   5  1   
  5   4   7  1   
  6   4  29  1   
  7   5   6  2   
  8   5  12  am  
  9   7   8  1   
 10   7  30  1   
 11   7  31  1   
 12   8   9  1   
 13   8  32  1   
 14   8  33  1   
 15   9  10  ar  
 16   9  11  ar  
 17  12  13  1   
 18  12  34  1   
 19  13  14  1   
 20  13  16  1   
 21  13  35  1   
 22  14  15  2   
 23  14  20  am  
 24  16  17  1   
 25  16  36  1   
 26  16  37  1   
 27  17  18  ar  
 28  17  19  ar  
 29  20  21  1   
 30  20  38  1   
 31  21  22  1   
 32  21  24  1   
 33  21  39  1   
 34  22  23  ar  
 35  22  28  ar  
 36  24  25  1   
 37  24  40  1   
 38  24  41  1   
 39  25  26  1   
 40  25  27  1   
 41  25  42  1   
 42  26  43  1   
 43  26  44  1   
 44  26  45  1   
 45  27  46  1   
 46  27  47  1   
 47  27  48  1   
@<TRIPOS>SUBSTRUCTURE
  1 MOL  12 GROUP 4 **** **** 0

# MOE 2010.10 (io_trps.svl 2010.06)
